LTspice 26.0.0 for Windows
Circuit: D:\Work\AIME_2.net
Start Time: Tue Dec  2 14:23:37 2025
solver = Normal
Maximum thread count: 16
tnom = 27
temp = 27
method = trap
Direct Newton iteration succeeded in finding operating point.
Total elapsed time: 0.081 seconds.

Files loaded:
D:\Work\AIME_2.net
C:\Users\rouss\AppData\Local\LTspice\lib\sub\LTC.lib

