LTspice 26.0.0 for Windows
Circuit: D:\Work\AIME_3.net
Start Time: Tue Dec  2 15:08:03 2025
solver = Normal
Maximum thread count: 16
tnom = 27
temp = 27
method = trap
Direct Newton iteration succeeded in finding operating point.
Total elapsed time: 0.078 seconds.

Files loaded:
D:\Work\AIME_3.net
C:\Users\rouss\AppData\Local\LTspice\lib\sub\LTC.lib

